Version 4
SHEET 1 880 680
WIRE -80 160 -160 160
WIRE -80 192 -112 192
WIRE 368 192 336 192
WIRE -112 272 -112 192
WIRE 176 272 176 240
WIRE 176 272 -112 272
WIRE 208 272 208 240
WIRE 208 272 176 272
WIRE 304 272 304 160
WIRE 304 272 208 272
WIRE 336 272 336 192
WIRE 528 272 336 272
FLAG -240 384 0
FLAG -240 304 Vdd
IOPIN -240 304 In
FLAG 176 112 Vdd
IOPIN 176 112 In
FLAG 496 160 Vdd
IOPIN 496 160 In
FLAG 48 160 Vdd
IOPIN 48 160 In
FLAG 48 192 0
FLAG 208 112 0
FLAG 496 192 0
FLAG -240 160 0
SYMBOL AutoGenerated\\4069UB -16 176 R0
SYMATTR InstName U1
SYMBOL AutoGenerated\\4069UB 432 176 R0
SYMATTR InstName U3
SYMBOL voltage -144 160 R90
WINDOW 0 -32 56 VBottom 2
WINDOW 3 32 56 VTop 2
WINDOW 123 0 0 Left 0
WINDOW 39 0 0 Left 0
SYMATTR InstName V1
SYMATTR Value SINE(2.563 1m 100)
SYMBOL AutoGenerated\\4069UB 192 176 R270
SYMATTR InstName U2
SYMBOL voltage -240 288 R0
WINDOW 123 0 0 Left 0
WINDOW 39 0 0 Left 0
SYMATTR InstName V2
SYMATTR Value 6
TEXT -312 408 Left 2 !.tran 100m
