Version 4
SHEET 1 916 680
WIRE 496 48 352 48
WIRE 704 48 576 48
WIRE 352 112 352 48
WIRE 352 112 112 112
WIRE 448 112 352 112
WIRE 704 176 704 48
WIRE 704 176 624 176
WIRE 784 176 704 176
WIRE 112 192 112 112
WIRE 112 192 48 192
WIRE 176 192 112 192
WIRE 448 192 448 112
WIRE 496 192 448 192
WIRE 768 208 624 208
WIRE 176 224 80 224
WIRE 352 224 304 224
WIRE 496 224 448 224
WIRE 80 240 80 224
WIRE 656 240 624 240
WIRE 352 256 352 224
WIRE 448 256 448 224
WIRE 656 256 656 240
WIRE 768 256 768 208
FLAG 80 320 0
FLAG 48 192 Vout
IOPIN 48 192 Out
FLAG 784 176 OPout
IOPIN 784 176 Out
FLAG 656 336 0
FLAG 768 336 0
FLAG 304 192 0
FLAG 352 336 0
FLAG 448 336 0
SYMBOL voltage 80 224 M0
WINDOW 123 0 0 Left 0
WINDOW 39 0 0 Left 0
SYMATTR InstName Vin
SYMATTR Value 6
SYMBOL AutoGenerated\\LMX24_LM2902 560 208 M180
SYMATTR InstName U2
SYMBOL voltage 656 240 R0
WINDOW 123 0 0 Left 0
WINDOW 39 0 0 Left 0
SYMATTR InstName V1
SYMATTR Value 12
SYMBOL voltage 768 352 M180
WINDOW 0 24 96 Left 2
WINDOW 3 24 16 Left 2
SYMATTR InstName V2
SYMATTR Value 5
SYMBOL res 592 32 R90
WINDOW 0 0 56 VBottom 2
WINDOW 3 32 56 VTop 2
SYMATTR InstName R3
SYMATTR Value 1k
SYMBOL AutoGenerated\\4069UB 240 208 M180
SYMATTR InstName U1
SYMBOL voltage 352 240 M0
WINDOW 123 0 0 Left 0
WINDOW 39 0 0 Left 0
SYMATTR InstName V3
SYMATTR Value 6
SYMBOL voltage 448 240 M0
WINDOW 123 0 0 Left 0
WINDOW 39 0 0 Left 0
SYMATTR InstName V4
SYMATTR Value 3
TEXT 336 400 Left 2 !.dc Vin 0 6 1m
