Version 4
SHEET 1 880 680
WIRE 112 80 112 16
WIRE 112 80 32 80
WIRE 32 96 32 80
WIRE 112 112 112 80
WIRE 128 112 112 112
WIRE 320 112 256 112
WIRE 128 144 112 144
WIRE 288 144 256 144
WIRE 32 192 32 176
WIRE 112 192 112 144
WIRE 112 192 32 192
WIRE 112 224 112 192
FLAG 288 144 0
FLAG 400 112 0
FLAG 112 288 0
FLAG 112 -128 0
SYMBOL AutoGenerated\\4069UB 192 128 R0
SYMATTR InstName U1
SYMBOL res 48 192 R180
WINDOW 0 36 76 Left 2
WINDOW 3 36 40 Left 2
SYMATTR InstName R1
SYMATTR Value 53464.2137
SYMBOL voltage 304 112 R270
WINDOW 0 32 56 VTop 2
WINDOW 3 -32 56 VBottom 2
WINDOW 123 0 0 Left 0
WINDOW 39 0 0 Left 0
SYMATTR InstName V1
SYMATTR Value 6
SYMBOL cap 96 -48 R0
SYMATTR InstName C1
SYMATTR Value 10
SYMBOL cap 96 224 R0
SYMATTR InstName C2
SYMATTR Value 10
SYMBOL voltage 112 -32 R180
WINDOW 0 24 96 Left 2
WINDOW 3 24 16 Left 2
WINDOW 123 0 0 Left 0
WINDOW 39 0 0 Left 0
SYMATTR InstName Vin
SYMATTR Value SINE(0 1m 100)
TEXT -104 312 Left 2 !.tran 100m
