Version 4
SHEET 1 1560 680
WIRE 576 -224 464 -224
WIRE 736 -224 656 -224
WIRE 1024 -192 800 -192
WIRE 1312 -192 1040 -192
WIRE 464 -128 464 -224
WIRE 464 -128 320 -128
WIRE 736 -128 736 -224
WIRE 736 -128 704 -128
WIRE 800 -128 800 -192
WIRE 800 -128 736 -128
WIRE 1024 -128 1024 -192
WIRE 1024 -128 992 -128
WIRE 1312 -128 1312 -192
WIRE 1312 -128 1280 -128
WIRE 736 -96 704 -96
WIRE 1024 -96 1024 -128
WIRE 1024 -96 992 -96
WIRE 1344 -96 1280 -96
WIRE 1024 -64 1024 -96
WIRE 1040 -64 1040 -192
WIRE 1040 -64 1024 -64
WIRE 464 -32 464 -128
WIRE 736 -32 736 -96
WIRE 736 -32 464 -32
WIRE -208 0 -288 0
WIRE -48 0 -128 0
WIRE 1344 80 1344 -96
WIRE 1424 80 1344 80
WIRE -384 112 -432 112
WIRE -288 112 -288 0
WIRE -288 112 -320 112
WIRE -256 112 -288 112
WIRE -48 112 -48 0
WIRE -32 112 -48 112
WIRE 64 112 32 112
WIRE 176 112 176 32
WIRE 176 112 64 112
WIRE 240 112 176 112
WIRE 320 112 320 -128
WIRE 320 112 240 112
WIRE 560 112 464 112
WIRE 752 112 640 112
WIRE -256 144 -288 144
WIRE 32 144 -16 144
WIRE 240 144 240 112
WIRE 128 160 64 160
WIRE 32 176 32 144
WIRE 64 176 64 160
WIRE 1424 192 1424 144
WIRE -288 208 -288 144
WIRE -48 208 -48 112
WIRE -48 208 -288 208
WIRE 320 208 320 112
WIRE 464 208 464 112
WIRE 464 208 320 208
WIRE 496 208 464 208
WIRE 240 224 240 208
WIRE 752 224 752 112
WIRE 752 224 704 224
WIRE 1344 224 1344 80
WIRE 1344 224 752 224
WIRE 496 240 464 240
WIRE 464 304 464 240
WIRE 704 304 704 224
WIRE 704 304 464 304
WIRE -16 432 -16 144
WIRE 16 432 -16 432
WIRE 128 432 128 160
WIRE 128 432 96 432
FLAG -512 112 0
FLAG 240 224 0
FLAG -400 -112 0
FLAG -400 -192 Vdd
IOPIN -400 -192 In
FLAG -128 112 Vdd
IOPIN -128 112 In
FLAG 576 -128 Vdd
IOPIN 576 -128 In
FLAG 864 -128 Vdd
IOPIN 864 -128 In
FLAG 1152 -96 Vdd
IOPIN 1152 -96 In
FLAG 624 208 Vdd
IOPIN 624 208 In
FLAG 624 240 0
FLAG -128 144 0
FLAG 576 -96 0
FLAG 864 -96 0
FLAG 1152 -128 0
FLAG 176 32 Vout
IOPIN 176 32 Out
FLAG 1424 192 0
FLAG 32 304 Vdd
IOPIN 32 304 In
FLAG 64 304 0
FLAG 64 32 0
SYMBOL AutoGenerated\\4069UB -192 128 R0
SYMATTR InstName U1
SYMBOL voltage -416 112 R90
WINDOW 0 -32 56 VBottom 2
WINDOW 3 88 56 VTop 2
WINDOW 123 60 56 VTop 2
WINDOW 39 0 0 Left 0
SYMATTR InstName Vin
SYMATTR Value SINE(0 1m 10k)
SYMATTR Value2 AC 1
SYMBOL cap 224 144 R0
WINDOW 3 -74 7 Left 2
SYMATTR Value 29.39n
SYMATTR InstName C3
SYMBOL AutoGenerated\\4069UB 560 224 R0
SYMATTR InstName U2
SYMBOL AutoGenerated\\4069UB 640 -112 M0
SYMATTR InstName U3
SYMBOL AutoGenerated\\4069UB 928 -112 M0
SYMATTR InstName U4
SYMBOL AutoGenerated\\4069UB 1216 -112 R180
SYMATTR InstName U5
SYMBOL voltage -400 -208 R0
WINDOW 123 0 0 Left 0
WINDOW 39 0 0 Left 0
SYMATTR InstName Vdd
SYMATTR Value 6
SYMBOL cap 1408 80 R0
SYMATTR InstName C9
SYMATTR Value 29.39n
SYMBOL AutoGenerated\\4069UB 48 240 M90
SYMATTR InstName U6
SYMBOL res -112 -16 R90
WINDOW 0 0 56 VBottom 2
WINDOW 3 32 56 VTop 2
SYMATTR InstName R1
SYMATTR Value 55k
SYMBOL res 672 -240 R90
WINDOW 0 0 56 VBottom 2
WINDOW 3 32 56 VTop 2
SYMATTR InstName R2
SYMATTR Value 55k
SYMBOL res 656 96 R90
WINDOW 0 0 56 VBottom 2
WINDOW 3 32 56 VTop 2
SYMATTR InstName R3
SYMATTR Value 55k
SYMBOL res 112 416 R90
WINDOW 0 0 56 VBottom 2
WINDOW 3 32 56 VTop 2
SYMATTR InstName R5
SYMATTR Value 1056.066
SYMBOL cap -320 96 R90
WINDOW 0 0 32 VBottom 2
WINDOW 3 32 32 VTop 2
SYMATTR InstName C1
SYMATTR Value 1
SYMBOL cap 32 96 R90
WINDOW 0 0 32 VBottom 2
WINDOW 3 32 32 VTop 2
SYMATTR InstName C2
SYMATTR Value 1
SYMBOL res 48 16 R0
SYMATTR InstName R4
SYMATTR Value 1082.837
TEXT -500 290 Left 2 !;.ac dec 100 1 100k
TEXT -532 482 Left 2 !.tran 1m
