Version 4
SHEET 1 880 680
WIRE 544 -48 304 -48
WIRE 304 0 304 -48
WIRE 304 0 288 0
WIRE 544 0 544 -48
WIRE 544 0 512 0
WIRE 304 32 304 0
WIRE 304 32 288 32
WIRE 544 32 512 32
WIRE 32 96 32 32
WIRE 32 96 -32 96
WIRE 64 96 64 32
WIRE 304 96 304 32
WIRE 304 96 64 96
WIRE -544 208 -688 208
WIRE -256 208 -320 208
WIRE -224 208 -256 208
WIRE -128 208 -128 144
WIRE -128 208 -224 208
WIRE -32 208 -32 96
WIRE -32 208 -128 208
WIRE 544 208 544 32
WIRE 592 208 544 208
WIRE -544 240 -576 240
WIRE -256 240 -256 208
WIRE -224 240 -224 208
WIRE -128 240 -128 208
WIRE 592 240 592 208
WIRE -576 304 -576 240
WIRE -320 304 -320 208
WIRE -320 304 -576 304
WIRE -128 320 -128 304
WIRE -32 368 -32 208
WIRE 160 368 -32 368
WIRE 544 368 544 208
WIRE 544 368 368 368
WIRE 160 400 128 400
WIRE 128 464 128 400
WIRE 368 464 368 368
WIRE 368 464 128 464
FLAG -512 80 0
FLAG -512 0 Vdd
IOPIN -512 0 In
FLAG -768 208 0
FLAG -416 208 Vdd
IOPIN -416 208 In
FLAG -416 240 0
FLAG -128 320 0
FLAG 288 368 Vdd
IOPIN 288 368 In
FLAG 288 400 0
FLAG 592 304 0
FLAG -128 144 Vout
IOPIN -128 144 Out
FLAG 160 32 Vdd
IOPIN 160 32 In
FLAG 384 32 Vdd
IOPIN 384 32 In
FLAG 384 0 0
FLAG 160 0 0
FLAG 32 -96 0
FLAG 64 -96 Vdd
IOPIN 64 -96 In
FLAG -256 368 Vdd
IOPIN -256 368 In
FLAG -224 368 0
SYMBOL voltage -512 -16 R0
WINDOW 123 0 0 Left 0
WINDOW 39 0 0 Left 0
SYMATTR InstName V1
SYMATTR Value {Vdd}
SYMBOL AutoGenerated\\4069UB -480 224 R0
SYMATTR InstName U1
SYMBOL voltage -672 208 R90
WINDOW 0 -32 56 VBottom 2
WINDOW 3 88 56 VTop 2
WINDOW 123 60 56 VTop 2
WINDOW 39 0 0 Left 0
SYMATTR InstName Vin
SYMATTR Value 2.5626
SYMATTR Value2 AC 1
SYMBOL cap -144 240 R0
SYMATTR InstName C1
SYMATTR Value 59.5367n
SYMBOL AutoGenerated\\4069UB 224 384 R0
SYMATTR InstName U2
SYMBOL cap 576 240 R0
SYMATTR InstName C2
SYMATTR Value 14.88n
SYMBOL AutoGenerated\\4069UB 448 16 R180
SYMATTR InstName U3
SYMBOL AutoGenerated\\4069UB 224 16 R180
SYMATTR InstName U4
SYMBOL AutoGenerated\\4069UB 48 -32 M270
SYMATTR InstName U5
SYMBOL AutoGenerated\\4069UB -240 304 M90
SYMATTR InstName U6
TEXT -712 472 Left 2 !.ac dec 100 1m 1G
TEXT -736 512 Left 2 !.step param Vdd 5 9 0.5
